examples/te30/TE_Challenge0.glm
#set double_format=%+.12lg
#set profiler=1
#set randomseed=10
#set relax_naming_rules=1
#set savefile=test.xml
#set minimum_timestep=15

clock {
	timezone PST+8PDT;
	starttime '2013-07-01 00:00:00';
//	stoptime '2013-07-01 01:00:00';
	stoptime '2013-07-03 00:00:00';
}

module climate;
module market;
module connection; // FNCS
module powerflow {
	solver_method FBS;
	NR_iteration_limit 100;
}
module residential {
	implicit_enduses NONE;
}
module tape;
module generators;

#include "../../support/schedules/water_and_setpoint_schedule_v3.glm"
#include "../../support/schedules/appliance_schedules.glm"

// summer
#define FIXED_PRICE=0.127
// winter
//#define FIXED_PRICE=0.088

object metrics_collector_writer {
     interval 300;
     filename TE_Challenge0_metrics.json;
};

object climate {
     name "RegionalWeather";
     tmyfile "../../support/weather/AZ-Tucson_International_Ap.tmy3";
     interpolate QUADRATIC;
};

class player {
      double value;
}

object player {
    name PHASE_A;
    file "../players/phase_A.player";
    loop 1;
}
object player {
    name PHASE_B;
    file "../players/phase_B.player";
    loop 1;
}
object player {
    name PHASE_C;
    file "../players/phase_C.player";
    loop 1;
}

object transformer_configuration {
	name substation_config;
	connect_type WYE_WYE;
	install_type PADMOUNT;
	power_rating 450;
	powerA_rating 150 kVA;
	powerB_rating 150;
	powerC_rating 150;
	primary_voltage 133000;
	secondary_voltage 7200;
	impedance +0.0015+0.00675j;
}

object transformer_configuration {
	name default_transformer_A;
	connect_type SINGLE_PHASE_CENTER_TAPPED;
	install_type PADMOUNT;
	power_rating 150;
	powerA_rating 150 kVA;
	primary_voltage 7200;
	secondary_voltage 120;
	impedance +0.015+0.0675j;
}

object transformer_configuration {
	name default_transformer_B;
	connect_type SINGLE_PHASE_CENTER_TAPPED;
	install_type PADMOUNT;
	power_rating 150;
	powerB_rating 150;
	primary_voltage 7200;
	secondary_voltage 120;
	impedance +0.015+0.0675j;
}

object transformer_configuration {
	name default_transformer_C;
	connect_type SINGLE_PHASE_CENTER_TAPPED;
	install_type PADMOUNT;
	power_rating 150;
	powerC_rating 150;
	primary_voltage 7200;
	secondary_voltage 120;
	impedance +0.015+0.0675j;
}

object triplex_line_conductor {
	name Name_1_0_AA_triplex;
	resistance 0.57;
	geometric_mean_radius 0.011;
}

object triplex_line_configuration {
	name TLCFG;
	conductor_1 Name_1_0_AA_triplex;
	conductor_2 Name_1_0_AA_triplex;
	conductor_N Name_1_0_AA_triplex;
	insulation_thickness 0.08;
	diameter 0.368;
}

// this has to be a substation for the MATPOWER/PYPOWER interface
object substation {
	name network_node;
	phases ABCN;
	nominal_voltage 133000;
	positive_sequence_voltage 133000;
	bustype SWING;
  base_power 12MVA;
  power_convergence_value 100VA;
  object metrics_collector {
    interval 300;
  };
}

#ifdef USE_FNCS
object fncs_msg {
     name gridlabdSimulator1;
     parent network_node;
     configure TE_Challenge0_FNCS_Config.txt;
//     configure TE_Eplusonly.txt;
     option "transport:hostname localhost, port 5570";
}
#endif

object meter {
	name F1_transformer_meter;
	phases ABCN;
	nominal_voltage 7200;
}

object transformer {
	name F1_Transformer1;
	groupid F1_Network_Trans;
	phases ABCN;
	from network_node;
	to F1_transformer_meter;
	configuration substation_config;
}

object load {
     name unresp_load;
     nominal_voltage 7200;
     phases ABCN;
     parent F1_transformer_meter;
	 
     base_power_A PHASE_A.value*0.05;
     base_power_B PHASE_B.value*0.05;
     base_power_C PHASE_C.value*0.05;
	 
	 power_pf_A 0.9;
	 power_pf_B 0.9;
	 power_pf_C 0.9;
	 
	 power_fraction_A 1.0;
	 power_fraction_B 1.0;
	 power_fraction_C 1.0;
	 
	 current_fraction_A 0.0;
	 current_fraction_B 0.0;
	 current_fraction_C 0.0;
	 
	 impedance_fraction_A 0.0;
	 impedance_fraction_B 0.0;
	 impedance_fraction_C 0.0;
};

object triplex_meter {
	name F1_triplex_node_A;
	phases SA;
	nominal_voltage 120;
}

object triplex_meter {
	name F1_triplex_node_B;
	phases SB;
	nominal_voltage 120;
}

object triplex_meter {
	name F1_triplex_node_C;
	phases SC;
	nominal_voltage 120;
}

object transformer {
	name F1_center_tap_transformer_A;
	phases SA;
	from F1_transformer_meter;
	to F1_triplex_node_A;
	configuration default_transformer_A;
}

object transformer {
	name F1_center_tap_transformer_B;
	phases SB;
	from F1_transformer_meter;
	to F1_triplex_node_B;
	configuration default_transformer_B;
}

object transformer {
	name F1_center_tap_transformer_C;
	phases SC;
	from F1_transformer_meter;
	to F1_triplex_node_C;
	configuration default_transformer_C;
}

object triplex_meter {
	name F1_tpm_flatrate_B0;
	groupid F1_flatrate_meter;
	phases SB;
	nominal_voltage 120;
	bill_mode UNIFORM;
  price ${FIXED_PRICE};
  bill_day 1;
  monthly_fee 6;
}

object triplex_line {
	groupid F1_Triplex_Line;
	phases SB;
	from F1_triplex_node_B;
	to F1_tpm_flatrate_B0;
	length 10 ft;
	configuration TLCFG;
}

object triplex_meter {
	name F1_tpm_rt_B0;
	groupid F1_rt_meter;
	parent F1_tpm_flatrate_B0;
	phases SB;
	nominal_voltage 120;
	bill_mode UNIFORM;
  bill_day 1;
  monthly_fee 6;
  price ${FIXED_PRICE};
  object metrics_collector {
    interval 300;
  };
}

object house {
	name F1_house_B0;
	parent F1_tpm_rt_B0;
	schedule_skew 577;
	Rroof 17.618;
	Rwall 6.872;
	Rfloor 4.818;
	Rdoors 3;
	Rwindows 1.315;
	airchange_per_hour 1.288;
	hvac_power_factor 0.97;
	cooling_system_type ELECTRIC;
	heating_system_type GAS;
	fan_type ONE_SPEED;
	hvac_breaker_rating 200;
	total_thermal_mass_per_floor_area 4.311;
	motor_efficiency AVERAGE;
	motor_model BASIC;
	cooling_COP 2.502;
	floor_area 637.886;
	number_of_doors 1;
	air_temperature 68.886;
	mass_temperature 68.886;
	heating_setpoint heating5*1.043+1.41;
object ZIPload {
	schedule_skew 577;
	heat_fraction 0.889;
	base_power LIGHTS*1.7284;
	power_pf 0;
	power_fraction 0;
	current_pf 0;
	current_fraction 0;
	impedance_pf 1;
	impedance_fraction 1;
};
object ZIPload {
	schedule_skew 577;
	heat_fraction 0.732;
	base_power CLOTHESWASHER*0.9135;
	power_pf 0.97;
	power_fraction 1;
	current_pf 0.97;
	current_fraction 0;
	impedance_pf 0.97;
	impedance_fraction 0;
};
object ZIPload {
	schedule_skew 577;
	heat_fraction 0.853;
	base_power REFRIGERATOR*0.8837;
	power_pf 0.97;
	power_fraction 1;
	current_pf 0.97;
	current_fraction 0;
	impedance_pf 0.97;
	impedance_fraction 0;
};
object ZIPload {
	schedule_skew 577;
	heat_fraction 0.875;
	base_power DRYER*0.5453;
	power_pf 0.9;
	power_fraction 0.1;
	current_pf 0.9;
	current_fraction 0.1;
	impedance_pf 1;
	impedance_fraction 0.8;
};
object ZIPload {
	schedule_skew 577;
	heat_fraction 0.76;
	base_power RANGE*0.6705;
	power_pf 0;
	power_fraction 0;
	current_pf 0;
	current_fraction 0;
	impedance_pf 1;
	impedance_fraction 1;
};
object ZIPload {
	schedule_skew 577;
	heat_fraction 0.951;
	base_power MICROWAVE*0.7977;
	power_pf 0.97;
	power_fraction 1;
	current_pf 0.97;
	current_fraction 0;
	impedance_pf 0.97;
	impedance_fraction 0;
};
 object metrics_collector {
  interval 300;
 };
}

object triplex_meter {
	name F1_tpm_flatrate_C1;
	groupid F1_flatrate_meter;
	phases SC;
	nominal_voltage 120;
	bill_mode UNIFORM;
  price ${FIXED_PRICE};
  bill_day 1;
  monthly_fee 6;
}

object triplex_line {
	groupid F1_Triplex_Line;
	phases SC;
	from F1_triplex_node_C;
	to F1_tpm_flatrate_C1;
	length 10 ft;
	configuration TLCFG;
}

object triplex_meter {
	name F1_tpm_rt_C1;
	groupid F1_rt_meter;
	parent F1_tpm_flatrate_C1;
	phases SC;
	nominal_voltage 120;
	bill_mode UNIFORM;
  bill_day 1;
  monthly_fee 6;
  price ${FIXED_PRICE};
  object metrics_collector {
    interval 300;
  };
}

object house {
	name F1_house_C1;
	parent F1_tpm_rt_C1;
	schedule_skew -745;
	Rroof 33.903;
	Rwall 20.296;
	Rfloor 12.58;
	Rdoors 5;
	Rwindows 1.664;
	airchange_per_hour 0.946;
	hvac_power_factor 0.97;
	cooling_system_type ELECTRIC;
	heating_system_type GAS;
	fan_type ONE_SPEED;
	hvac_breaker_rating 200;
	total_thermal_mass_per_floor_area 4.581;
	motor_efficiency AVERAGE;
	motor_model BASIC;
	cooling_COP 3.421;
	floor_area 1094.925;
	number_of_doors 2;
	air_temperature 71.924;
	mass_temperature 71.924;
	heating_setpoint heating2*0.964+0.50;
object ZIPload {
	schedule_skew -745;
	heat_fraction 0.929;
	base_power LIGHTS*2.0313;
	power_pf -0.78;
	power_fraction 0.6;
	current_pf 0.42;
	current_fraction 0;
	impedance_pf -0.88;
	impedance_fraction 0.4;
};
object ZIPload {
	schedule_skew -745;
	heat_fraction 0.751;
	base_power CLOTHESWASHER*0.4040;
	power_pf 0.97;
	power_fraction 1;
	current_pf 0.97;
	current_fraction 0;
	impedance_pf 0.97;
	impedance_fraction 0;
};
object ZIPload {
	schedule_skew -745;
	heat_fraction 0.74;
	base_power REFRIGERATOR*0.4258;
	power_pf 0.97;
	power_fraction 1;
	current_pf 0.97;
	current_fraction 0;
	impedance_pf 0.97;
	impedance_fraction 0;
};
object ZIPload {
	schedule_skew -745;
	heat_fraction 0.915;
	base_power DRYER*0.5606;
	power_pf 0.9;
	power_fraction 0.1;
	current_pf 0.9;
	current_fraction 0.1;
	impedance_pf 1;
	impedance_fraction 0.8;
};
object ZIPload {
	schedule_skew -745;
	heat_fraction 0.864;
	base_power DISHWASHER*0.7450;
	power_pf 0.97;
	power_fraction 1;
	current_pf 0.97;
	current_fraction 0;
	impedance_pf 0.97;
	impedance_fraction 0;
};
object ZIPload {
	schedule_skew -745;
	heat_fraction 0.704;
	base_power RANGE*1.1280;
	power_pf 0;
	power_fraction 0;
	current_pf 0;
	current_fraction 0;
	impedance_pf 1;
	impedance_fraction 1;
};
object ZIPload {
	schedule_skew -745;
	heat_fraction 0.841;
	base_power MICROWAVE*0.9960;
	power_pf 0.97;
	power_fraction 1;
	current_pf 0.97;
	current_fraction 0;
	impedance_pf 0.97;
	impedance_fraction 0;
};
 object metrics_collector {
  interval 300;
 };
}

object triplex_meter {
	name F1_tpm_flatrate_C2;
	groupid F1_flatrate_meter;
	phases SC;
	nominal_voltage 120;
	bill_mode UNIFORM;
  price ${FIXED_PRICE};
  bill_day 1;
  monthly_fee 6;
}

object triplex_line {
	groupid F1_Triplex_Line;
	phases SC;
	from F1_triplex_node_C;
	to F1_tpm_flatrate_C2;
	length 10 ft;
	configuration TLCFG;
}

object triplex_meter {
	name F1_tpm_rt_C2;
	groupid F1_rt_meter;
	parent F1_tpm_flatrate_C2;
	phases SC;
	nominal_voltage 120;
	bill_mode UNIFORM;
  bill_day 1;
  monthly_fee 6;
  price ${FIXED_PRICE};
  object metrics_collector {
    interval 300;
  };
}

object house {
	name F1_house_C2;
	parent F1_tpm_rt_C2;
	schedule_skew -1065;
	Rroof 22.324;
	Rwall 13.948;
	Rfloor 10.588;
	Rdoors 3;
	Rwindows 1.158;
	airchange_per_hour 1.017;
	hvac_power_factor 0.97;
	cooling_system_type ELECTRIC;
	heating_system_type GAS;
	fan_type ONE_SPEED;
	hvac_breaker_rating 200;
	total_thermal_mass_per_floor_area 3.24;
	motor_efficiency AVERAGE;
	motor_model BASIC;
	cooling_COP 3.317;
	floor_area 618.015;
	number_of_doors 1;
	air_temperature 68.511;
	mass_temperature 68.511;
	heating_setpoint heating3*1.019+1.33;
object ZIPload {
	schedule_skew -1065;
	heat_fraction 0.943;
	base_power LIGHTS*1.2858;
	power_pf 0;
	power_fraction 0;
	current_pf 0;
	current_fraction 0;
	impedance_pf 1;
	impedance_fraction 1;
};
object ZIPload {
	schedule_skew -1065;
	heat_fraction 0.796;
	base_power CLOTHESWASHER*0.5579;
	power_pf 0.97;
	power_fraction 1;
	current_pf 0.97;
	current_fraction 0;
	impedance_pf 0.97;
	impedance_fraction 0;
};
object ZIPload {
	schedule_skew -1065;
	heat_fraction 0.873;
	base_power REFRIGERATOR*0.6902;
	power_pf 0.97;
	power_fraction 1;
	current_pf 0.97;
	current_fraction 0;
	impedance_pf 0.97;
	impedance_fraction 0;
};
object ZIPload {
	schedule_skew -1065;
	heat_fraction 0.869;
	base_power DRYER*0.8551;
	power_pf 0.9;
	power_fraction 0.1;
	current_pf 0.9;
	current_fraction 0.1;
	impedance_pf 1;
	impedance_fraction 0.8;
};
object ZIPload {
	schedule_skew -1065;
	heat_fraction 0.931;
	base_power RANGE*0.5889;
	power_pf 0;
	power_fraction 0;
	current_pf 0;
	current_fraction 0;
	impedance_pf 1;
	impedance_fraction 1;
};
object ZIPload {
	schedule_skew -1065;
	heat_fraction 0.695;
	base_power MICROWAVE*0.5648;
	power_pf 0.97;
	power_fraction 1;
	current_pf 0.97;
	current_fraction 0;
	impedance_pf 0.97;
	impedance_fraction 0;
};
 object metrics_collector {
  interval 300;
 };
}

object triplex_meter {
	name F1_tpm_flatrate_B3;
	groupid F1_flatrate_meter;
	phases SB;
	nominal_voltage 120;
	bill_mode UNIFORM;
  price ${FIXED_PRICE};
  bill_day 1;
  monthly_fee 6;
}

object triplex_line {
	groupid F1_Triplex_Line;
	phases SB;
	from F1_triplex_node_B;
	to F1_tpm_flatrate_B3;
	length 10 ft;
	configuration TLCFG;
}

object triplex_meter {
	name F1_tpm_rt_B3;
	groupid F1_rt_meter;
	parent F1_tpm_flatrate_B3;
	phases SB;
	nominal_voltage 120;
	bill_mode UNIFORM;
  bill_day 1;
  monthly_fee 6;
  price ${FIXED_PRICE};
  object metrics_collector {
    interval 300;
  };
}

object house {
	name F1_house_B3;
	parent F1_tpm_rt_B3;
	schedule_skew -655;
	Rroof 25.066;
	Rwall 18.122;
	Rfloor 17.734;
	Rdoors 5;
	Rwindows 1.428;
	airchange_per_hour 0.88;
	hvac_power_factor 0.97;
	cooling_system_type ELECTRIC;
	heating_system_type GAS;
	fan_type ONE_SPEED;
	hvac_breaker_rating 200;
	total_thermal_mass_per_floor_area 3.503;
	motor_efficiency AVERAGE;
	motor_model BASIC;
	cooling_COP 3.523;
	floor_area 2971.712;
	number_of_doors 3;
	air_temperature 69.055;
	mass_temperature 69.055;
	heating_setpoint heating4*0.958+1.61;
object ZIPload {
	schedule_skew -655;
	heat_fraction 0.916;
	base_power LIGHTS*1.8651;
	power_pf 0;
	power_fraction 0;
	current_pf 0;
	current_fraction 0;
	impedance_pf 1;
	impedance_fraction 1;
};
object ZIPload {
	schedule_skew -655;
	heat_fraction 0.809;
	base_power CLOTHESWASHER*1.0153;
	power_pf 0.97;
	power_fraction 1;
	current_pf 0.97;
	current_fraction 0;
	impedance_pf 0.97;
	impedance_fraction 0;
};
object ZIPload {
	schedule_skew -655;
	heat_fraction 0.916;
	base_power REFRIGERATOR*1.7091;
	power_pf 0.97;
	power_fraction 1;
	current_pf 0.97;
	current_fraction 0;
	impedance_pf 0.97;
	impedance_fraction 0;
};
object ZIPload {
	schedule_skew -655;
	heat_fraction 0.746;
	base_power DRYER*0.7780;
	power_pf 0.9;
	power_fraction 0.1;
	current_pf 0.9;
	current_fraction 0.1;
	impedance_pf 1;
	impedance_fraction 0.8;
};
object ZIPload {
	schedule_skew -655;
	heat_fraction 0.776;
	base_power FREEZER*0.9835;
	power_pf 0.97;
	power_fraction 1;
	current_pf 0.97;
	current_fraction 0;
	impedance_pf 0.97;
	impedance_fraction 0;
};
object ZIPload {
	schedule_skew -655;
	heat_fraction 0.646;
	base_power DISHWASHER*0.9828;
	power_pf 0.97;
	power_fraction 1;
	current_pf 0.97;
	current_fraction 0;
	impedance_pf 0.97;
	impedance_fraction 0;
};
object ZIPload {
	schedule_skew -655;
	heat_fraction 0.647;
	base_power RANGE*0.6574;
	power_pf 0;
	power_fraction 0;
	current_pf 0;
	current_fraction 0;
	impedance_pf 1;
	impedance_fraction 1;
};
object ZIPload {
	schedule_skew -655;
	heat_fraction 0.878;
	base_power MICROWAVE*1.0249;
	power_pf 0.97;
	power_fraction 1;
	current_pf 0.97;
	current_fraction 0;
	impedance_pf 0.97;
	impedance_fraction 0;
};
 object metrics_collector {
  interval 300;
 };
}

object triplex_meter {
	name F1_tpm_flatrate_B4;
	groupid F1_flatrate_meter;
	phases SB;
	nominal_voltage 120;
	bill_mode UNIFORM;
  price ${FIXED_PRICE};
  bill_day 1;
  monthly_fee 6;
}

object triplex_line {
	groupid F1_Triplex_Line;
	phases SB;
	from F1_triplex_node_B;
	to F1_tpm_flatrate_B4;
	length 10 ft;
	configuration TLCFG;
}

object triplex_meter {
	name F1_tpm_rt_B4;
	groupid F1_rt_meter;
	parent F1_tpm_flatrate_B4;
	phases SB;
	nominal_voltage 120;
	bill_mode UNIFORM;
  bill_day 1;
  monthly_fee 6;
  price ${FIXED_PRICE};
  object metrics_collector {
    interval 300;
  };
}

object house {
	name F1_house_B4;
	parent F1_tpm_rt_B4;
	schedule_skew -888;
	Rroof 27.921;
	Rwall 21.208;
	Rfloor 13.138;
	Rdoors 5;
	Rwindows 1.386;
	airchange_per_hour 1.156;
	hvac_power_factor 0.97;
	cooling_system_type ELECTRIC;
	heating_system_type GAS;
	fan_type ONE_SPEED;
	hvac_breaker_rating 200;
	total_thermal_mass_per_floor_area 4.82;
	motor_efficiency AVERAGE;
	motor_model BASIC;
	cooling_COP 3.54;
	floor_area 1476.721;
	number_of_doors 2;
	air_temperature 70.019;
	mass_temperature 70.019;
	heating_setpoint heating7*0.978+1.33;
object ZIPload {
	schedule_skew -888;
	heat_fraction 0.918;
	base_power LIGHTS*1.4554;
	power_pf -0.78;
	power_fraction 0.6;
	current_pf 0.42;
	current_fraction 0;
	impedance_pf -0.88;
	impedance_fraction 0.4;
};
object ZIPload {
	schedule_skew -888;
	heat_fraction 0.83;
	base_power CLOTHESWASHER*1.2004;
	power_pf 0.97;
	power_fraction 1;
	current_pf 0.97;
	current_fraction 0;
	impedance_pf 0.97;
	impedance_fraction 0;
};
object ZIPload {
	schedule_skew -888;
	heat_fraction 0.765;
	base_power REFRIGERATOR*0.8814;
	power_pf 0.97;
	power_fraction 1;
	current_pf 0.97;
	current_fraction 0;
	impedance_pf 0.97;
	impedance_fraction 0;
};
object ZIPload {
	schedule_skew -888;
	heat_fraction 0.692;
	base_power DRYER*1.1884;
	power_pf 0.9;
	power_fraction 0.1;
	current_pf 0.9;
	current_fraction 0.1;
	impedance_pf 1;
	impedance_fraction 0.8;
};
object ZIPload {
	schedule_skew -888;
	heat_fraction 0.906;
	base_power RANGE*0.9186;
	power_pf 0;
	power_fraction 0;
	current_pf 0;
	current_fraction 0;
	impedance_pf 1;
	impedance_fraction 1;
};
object ZIPload {
	schedule_skew -888;
	heat_fraction 0.8;
	base_power MICROWAVE*0.4692;
	power_pf 0.97;
	power_fraction 1;
	current_pf 0.97;
	current_fraction 0;
	impedance_pf 0.97;
	impedance_fraction 0;
};
 object metrics_collector {
  interval 300;
 };
}

object triplex_meter {
	name F1_tpm_flatrate_A5;
	groupid F1_flatrate_meter;
	phases SA;
	nominal_voltage 120;
	bill_mode UNIFORM;
  price ${FIXED_PRICE};
  bill_day 1;
  monthly_fee 6;
}

object triplex_line {
	groupid F1_Triplex_Line;
	phases SA;
	from F1_triplex_node_A;
	to F1_tpm_flatrate_A5;
	length 10 ft;
	configuration TLCFG;
}

object triplex_meter {
	name F1_tpm_rt_A5;
	groupid F1_rt_meter;
	parent F1_tpm_flatrate_A5;
	phases SA;
	nominal_voltage 120;
	bill_mode UNIFORM;
  bill_day 1;
  monthly_fee 6;
  price ${FIXED_PRICE};
  object metrics_collector {
    interval 300;
  };
}

object house {
	name F1_house_A5;
	parent F1_tpm_rt_A5;
	schedule_skew 350;
	Rroof 27.117;
	Rwall 20.54;
	Rfloor 16.722;
	Rdoors 5;
	Rwindows 1.81;
	airchange_per_hour 0.977;
	hvac_power_factor 0.97;
	cooling_system_type ELECTRIC;
	heating_system_type GAS;
	fan_type ONE_SPEED;
	hvac_breaker_rating 200;
	total_thermal_mass_per_floor_area 3.509;
	motor_efficiency AVERAGE;
	motor_model BASIC;
	cooling_COP 3.481;
	floor_area 1067.468;
	number_of_doors 2;
	air_temperature 68.735;
	mass_temperature 68.735;
	heating_setpoint heating6*0.961+1.26;
object ZIPload {
	schedule_skew 350;
	heat_fraction 0.899;
	base_power LIGHTS*2.2150;
	power_pf -0.78;
	power_fraction 0.6;
	current_pf 0.42;
	current_fraction 0;
	impedance_pf -0.88;
	impedance_fraction 0.4;
};
object ZIPload {
	schedule_skew 350;
	heat_fraction 0.721;
	base_power CLOTHESWASHER*0.8887;
	power_pf 0.97;
	power_fraction 1;
	current_pf 0.97;
	current_fraction 0;
	impedance_pf 0.97;
	impedance_fraction 0;
};
object ZIPload {
	schedule_skew 350;
	heat_fraction 0.699;
	base_power REFRIGERATOR*1.1846;
	power_pf 0.97;
	power_fraction 1;
	current_pf 0.97;
	current_fraction 0;
	impedance_pf 0.97;
	impedance_fraction 0;
};
object ZIPload {
	schedule_skew 350;
	heat_fraction 0.827;
	base_power DRYER*1.1192;
	power_pf 0.9;
	power_fraction 0.1;
	current_pf 0.9;
	current_fraction 0.1;
	impedance_pf 1;
	impedance_fraction 0.8;
};
object ZIPload {
	schedule_skew 350;
	heat_fraction 0.661;
	base_power RANGE*0.5108;
	power_pf 0;
	power_fraction 0;
	current_pf 0;
	current_fraction 0;
	impedance_pf 1;
	impedance_fraction 1;
};
object ZIPload {
	schedule_skew 350;
	heat_fraction 0.812;
	base_power MICROWAVE*0.9636;
	power_pf 0.97;
	power_fraction 1;
	current_pf 0.97;
	current_fraction 0;
	impedance_pf 0.97;
	impedance_fraction 0;
};
 object metrics_collector {
  interval 300;
 };
}

object triplex_meter {
	name F1_tpm_flatrate_B6;
	groupid F1_flatrate_meter;
	phases SB;
	nominal_voltage 120;
	bill_mode UNIFORM;
  price ${FIXED_PRICE};
  bill_day 1;
  monthly_fee 6;
}

object triplex_line {
	groupid F1_Triplex_Line;
	phases SB;
	from F1_triplex_node_B;
	to F1_tpm_flatrate_B6;
	length 10 ft;
	configuration TLCFG;
}

object triplex_meter {
	name F1_tpm_rt_B6;
	groupid F1_rt_meter;
	parent F1_tpm_flatrate_B6;
	phases SB;
	nominal_voltage 120;
	bill_mode UNIFORM;
  bill_day 1;
  monthly_fee 6;
  price ${FIXED_PRICE};
  object metrics_collector {
    interval 300;
  };
}

object house {
	name F1_house_B6;
	parent F1_tpm_rt_B6;
	schedule_skew 100;
	Rroof 27.866;
	Rwall 20.734;
	Rfloor 14.831;
	Rdoors 5;
	Rwindows 1.408;
	airchange_per_hour 1.084;
	hvac_power_factor 0.97;
	cooling_system_type ELECTRIC;
	heating_system_type GAS;
	fan_type ONE_SPEED;
	hvac_breaker_rating 200;
	total_thermal_mass_per_floor_area 3.088;
	motor_efficiency AVERAGE;
	motor_model BASIC;
	cooling_COP 3.544;
	floor_area 1434.683;
	number_of_doors 2;
	air_temperature 70.269;
	mass_temperature 70.269;
	heating_setpoint heating2*1.026+0.16;
object ZIPload {
	schedule_skew 100;
	heat_fraction 0.874;
	base_power LIGHTS*1.8722;
	power_pf 0;
	power_fraction 0;
	current_pf 0;
	current_fraction 0;
	impedance_pf 1;
	impedance_fraction 1;
};
object ZIPload {
	schedule_skew 100;
	heat_fraction 0.737;
	base_power CLOTHESWASHER*1.0593;
	power_pf 0.97;
	power_fraction 1;
	current_pf 0.97;
	current_fraction 0;
	impedance_pf 0.97;
	impedance_fraction 0;
};
object ZIPload {
	schedule_skew 100;
	heat_fraction 0.937;
	base_power REFRIGERATOR*1.2533;
	power_pf 0.97;
	power_fraction 1;
	current_pf 0.97;
	current_fraction 0;
	impedance_pf 0.97;
	impedance_fraction 0;
};
object ZIPload {
	schedule_skew 100;
	heat_fraction 0.733;
	base_power DRYER*0.9076;
	power_pf 0.9;
	power_fraction 0.1;
	current_pf 0.9;
	current_fraction 0.1;
	impedance_pf 1;
	impedance_fraction 0.8;
};
object ZIPload {
	schedule_skew 100;
	heat_fraction 0.906;
	base_power DISHWASHER*0.9959;
	power_pf 0.97;
	power_fraction 1;
	current_pf 0.97;
	current_fraction 0;
	impedance_pf 0.97;
	impedance_fraction 0;
};
object ZIPload {
	schedule_skew 100;
	heat_fraction 0.885;
	base_power RANGE*0.9538;
	power_pf 0;
	power_fraction 0;
	current_pf 0;
	current_fraction 0;
	impedance_pf 1;
	impedance_fraction 1;
};
object ZIPload {
	schedule_skew 100;
	heat_fraction 0.707;
	base_power MICROWAVE*0.4764;
	power_pf 0.97;
	power_fraction 1;
	current_pf 0.97;
	current_fraction 0;
	impedance_pf 0.97;
	impedance_fraction 0;
};
 object metrics_collector {
  interval 300;
 };
}

object triplex_meter {
	name F1_tpm_flatrate_B7;
	groupid F1_flatrate_meter;
	phases SB;
	nominal_voltage 120;	
	bill_mode UNIFORM;
  price ${FIXED_PRICE};
  bill_day 1;
  monthly_fee 6;
}

object triplex_line {
	groupid F1_Triplex_Line;
	phases SB;
	from F1_triplex_node_B;
	to F1_tpm_flatrate_B7;
	length 10 ft;
	configuration TLCFG;
}

object triplex_meter {
	name F1_tpm_rt_B7;
	groupid F1_rt_meter;
	parent F1_tpm_flatrate_B7;
	phases SB;
	nominal_voltage 120;
	bill_mode UNIFORM;
  bill_day 1;
  monthly_fee 6;
  price ${FIXED_PRICE};
  object metrics_collector {
    interval 300;
  };
}

object house {
	name F1_house_B7;
	parent F1_tpm_rt_B7;
	schedule_skew -473;
	Rroof 31.031;
	Rwall 19.501;
	Rfloor 12.947;
	Rdoors 5;
	Rwindows 1.334;
	airchange_per_hour 0.829;
	hvac_power_factor 0.97;
	cooling_system_type ELECTRIC;
	heating_system_type GAS;
	fan_type ONE_SPEED;
	hvac_breaker_rating 200;
	total_thermal_mass_per_floor_area 3.566;
	motor_efficiency AVERAGE;
	motor_model BASIC;
	cooling_COP 4.109;
	floor_area 1302.331;
	number_of_doors 2;
	air_temperature 69.696;
	mass_temperature 69.696;
	heating_setpoint heating8*1.036+2.91;
object ZIPload {
	schedule_skew -473;
	heat_fraction 0.727;
	base_power LIGHTS*1.8118;
	power_pf 0;
	power_fraction 0;
	current_pf 0;
	current_fraction 0;
	impedance_pf 1;
	impedance_fraction 1;
};
object ZIPload {
	schedule_skew -473;
	heat_fraction 0.863;
	base_power CLOTHESWASHER*0.4608;
	power_pf 0.97;
	power_fraction 1;
	current_pf 0.97;
	current_fraction 0;
	impedance_pf 0.97;
	impedance_fraction 0;
};
object ZIPload {
	schedule_skew -473;
	heat_fraction 0.89;
	base_power REFRIGERATOR*1.0213;
	power_pf 0.97;
	power_fraction 1;
	current_pf 0.97;
	current_fraction 0;
	impedance_pf 0.97;
	impedance_fraction 0;
};
object ZIPload {
	schedule_skew -473;
	heat_fraction 0.87;
	base_power DRYER*0.6613;
	power_pf 0.9;
	power_fraction 0.1;
	current_pf 0.9;
	current_fraction 0.1;
	impedance_pf 1;
	impedance_fraction 0.8;
};
object ZIPload {
	schedule_skew -473;
	heat_fraction 0.83;
	base_power RANGE*1.0347;
	power_pf 0;
	power_fraction 0;
	current_pf 0;
	current_fraction 0;
	impedance_pf 1;
	impedance_fraction 1;
};
object ZIPload {
	schedule_skew -473;
	heat_fraction 0.865;
	base_power MICROWAVE*1.0783;
	power_pf 0.97;
	power_fraction 1;
	current_pf 0.97;
	current_fraction 0;
	impedance_pf 0.97;
	impedance_fraction 0;
};
 object metrics_collector {
  interval 300;
 };
}

object triplex_meter {
	name F1_tpm_flatrate_A8;
	groupid F1_flatrate_meter;
	phases SA;
	nominal_voltage 120;
	bill_mode UNIFORM;
  price ${FIXED_PRICE};
  bill_day 1;
  monthly_fee 6;
}

object triplex_line {
	groupid F1_Triplex_Line;
	phases SA;
	from F1_triplex_node_A;
	to F1_tpm_flatrate_A8;
	length 10 ft;
	configuration TLCFG;
}

object triplex_meter {
	name F1_tpm_rt_A8;
	groupid F1_rt_meter;
	parent F1_tpm_flatrate_A8;
	phases SA;
	nominal_voltage 120;
	bill_mode UNIFORM;
  bill_day 1;
  monthly_fee 6;
  price ${FIXED_PRICE};
  object metrics_collector {
    interval 300;
  };
}

object house {
	name F1_house_A8;
	parent F1_tpm_rt_A8;
	schedule_skew -496;
	Rroof 17.496;
	Rwall 5.723;
	Rfloor 4.974;
	Rdoors 3;
	Rwindows 1.407;
	airchange_per_hour 1.357;
	hvac_power_factor 0.97;
	cooling_system_type ELECTRIC;
	heating_system_type GAS;
	fan_type ONE_SPEED;
	hvac_breaker_rating 200;
	total_thermal_mass_per_floor_area 3.379;
	motor_efficiency AVERAGE;
	motor_model BASIC;
	cooling_COP 2.552;
	floor_area 870.493;
	number_of_doors 1;
	air_temperature 70.582;
	mass_temperature 70.582;
	heating_setpoint heating5*0.960+1.18;
object ZIPload {
	schedule_skew -496;
	heat_fraction 0.86;
	base_power LIGHTS*0.8293;
	power_pf -0.78;
	power_fraction 0.6;
	current_pf 0.42;
	current_fraction 0;
	impedance_pf -0.88;
	impedance_fraction 0.4;
};
object ZIPload {
	schedule_skew -496;
	heat_fraction 0.687;
	base_power CLOTHESWASHER*0.9734;
	power_pf 0.97;
	power_fraction 1;
	current_pf 0.97;
	current_fraction 0;
	impedance_pf 0.97;
	impedance_fraction 0;
};
object ZIPload {
	schedule_skew -496;
	heat_fraction 0.888;
	base_power REFRIGERATOR*0.7271;
	power_pf 0.97;
	power_fraction 1;
	current_pf 0.97;
	current_fraction 0;
	impedance_pf 0.97;
	impedance_fraction 0;
};
object ZIPload {
	schedule_skew -496;
	heat_fraction 0.656;
	base_power DRYER*0.4851;
	power_pf 0.9;
	power_fraction 0.1;
	current_pf 0.9;
	current_fraction 0.1;
	impedance_pf 1;
	impedance_fraction 0.8;
};
object ZIPload {
	schedule_skew -496;
	heat_fraction 0.753;
	base_power DISHWASHER*0.6316;
	power_pf 0.97;
	power_fraction 1;
	current_pf 0.97;
	current_fraction 0;
	impedance_pf 0.97;
	impedance_fraction 0;
};
object ZIPload {
	schedule_skew -496;
	heat_fraction 0.71;
	base_power RANGE*0.8467;
	power_pf 0;
	power_fraction 0;
	current_pf 0;
	current_fraction 0;
	impedance_pf 1;
	impedance_fraction 1;
};
object ZIPload {
	schedule_skew -496;
	heat_fraction 0.868;
	base_power MICROWAVE*0.5315;
	power_pf 0.97;
	power_fraction 1;
	current_pf 0.97;
	current_fraction 0;
	impedance_pf 0.97;
	impedance_fraction 0;
};
 object metrics_collector {
  interval 300;
 };
}

object triplex_meter {
	name F1_tpm_flatrate_A9;
	groupid F1_flatrate_meter;
	phases SA;
	nominal_voltage 120;
	bill_mode UNIFORM;
  price ${FIXED_PRICE};
  bill_day 1;
  monthly_fee 6;
}

object triplex_line {
	groupid F1_Triplex_Line;
	phases SA;
	from F1_triplex_node_A;
	to F1_tpm_flatrate_A9;
	length 10 ft;
	configuration TLCFG;
}

object triplex_meter {
	name F1_tpm_rt_A9;
	groupid F1_rt_meter;
	parent F1_tpm_flatrate_A9;
	phases SA;
	nominal_voltage 120;
	bill_mode UNIFORM;
  bill_day 1;
  monthly_fee 6;
  price ${FIXED_PRICE};
  object metrics_collector {
    interval 300;
  };
}

object house {
	name F1_house_A9;
	parent F1_tpm_rt_A9;
	schedule_skew -1409;
	Rroof 12.569;
	Rwall 5.492;
	Rfloor 5.012;
	Rdoors 3;
	Rwindows 1.475;
	airchange_per_hour 1.444;
	hvac_power_factor 0.97;
	cooling_system_type ELECTRIC;
	heating_system_type GAS;
	fan_type ONE_SPEED;
	hvac_breaker_rating 200;
	total_thermal_mass_per_floor_area 4.813;
	motor_efficiency AVERAGE;
	motor_model BASIC;
	cooling_COP 3.036;
	floor_area 799.598;
	number_of_doors 1;
	air_temperature 68.251;
	mass_temperature 68.251;
	heating_setpoint heating3*0.992+0.90;
object ZIPload {
	schedule_skew -1409;
	heat_fraction 0.868;
	base_power LIGHTS*1.2861;
	power_pf -0.78;
	power_fraction 0.6;
	current_pf 0.42;
	current_fraction 0;
	impedance_pf -0.88;
	impedance_fraction 0.4;
};
object ZIPload {
	schedule_skew -1409;
	heat_fraction 0.685;
	base_power CLOTHESWASHER*0.4944;
	power_pf 0.97;
	power_fraction 1;
	current_pf 0.97;
	current_fraction 0;
	impedance_pf 0.97;
	impedance_fraction 0;
};
object ZIPload {
	schedule_skew -1409;
	heat_fraction 0.699;
	base_power REFRIGERATOR*0.4950;
	power_pf 0.97;
	power_fraction 1;
	current_pf 0.97;
	current_fraction 0;
	impedance_pf 0.97;
	impedance_fraction 0;
};
object ZIPload {
	schedule_skew -1409;
	heat_fraction 0.906;
	base_power DISHWASHER*0.8753;
	power_pf 0.97;
	power_fraction 1;
	current_pf 0.97;
	current_fraction 0;
	impedance_pf 0.97;
	impedance_fraction 0;
};
object ZIPload {
	schedule_skew -1409;
	heat_fraction 0.865;
	base_power RANGE*0.3988;
	power_pf 0;
	power_fraction 0;
	current_pf 0;
	current_fraction 0;
	impedance_pf 1;
	impedance_fraction 1;
};
object ZIPload {
	schedule_skew -1409;
	heat_fraction 0.822;
	base_power MICROWAVE*0.4758;
	power_pf 0.97;
	power_fraction 1;
	current_pf 0.97;
	current_fraction 0;
	impedance_pf 0.97;
	impedance_fraction 0;
};
 object metrics_collector {
  interval 300;
 };
}

object triplex_meter {
	name F1_tpm_flatrate_C10;
	groupid F1_flatrate_meter;
	phases SC;
	nominal_voltage 120;
	bill_mode UNIFORM;
  price ${FIXED_PRICE};
  bill_day 1;
  monthly_fee 6;
}

object triplex_line {
	groupid F1_Triplex_Line;
	phases SC;
	from F1_triplex_node_C;
	to F1_tpm_flatrate_C10;
	length 10 ft;
	configuration TLCFG;
}

object triplex_meter {
	name F1_tpm_rt_C10;
	groupid F1_rt_meter;
	parent F1_tpm_flatrate_C10;
	phases SC;
	nominal_voltage 120;
	bill_mode UNIFORM;
  bill_day 1;
  monthly_fee 6;
  price ${FIXED_PRICE};
  object metrics_collector {
    interval 300;
  };
}

object house {
	name F1_house_C10;
	parent F1_tpm_rt_C10;
	schedule_skew 1007;
	Rroof 15.237;
	Rwall 4.406;
	Rfloor 5.52;
	Rdoors 3;
	Rwindows 1.676;
	airchange_per_hour 1.305;
	hvac_power_factor 0.97;
	cooling_system_type ELECTRIC;
	heating_system_type GAS;
	fan_type ONE_SPEED;
	hvac_breaker_rating 200;
	total_thermal_mass_per_floor_area 4.451;
	motor_efficiency AVERAGE;
	motor_model BASIC;
	cooling_COP 2.472;
	floor_area 764.549;
	number_of_doors 1;
	air_temperature 71.015;
	mass_temperature 71.015;
	heating_setpoint heating5*0.977+1.10;
object ZIPload {
	schedule_skew 1007;
	heat_fraction 0.722;
	base_power LIGHTS*1.7097;
	power_pf -0.78;
	power_fraction 0.6;
	current_pf 0.42;
	current_fraction 0;
	impedance_pf -0.88;
	impedance_fraction 0.4;
};
object ZIPload {
	schedule_skew 1007;
	heat_fraction 0.664;
	base_power CLOTHESWASHER*0.3499;
	power_pf 0.97;
	power_fraction 1;
	current_pf 0.97;
	current_fraction 0;
	impedance_pf 0.97;
	impedance_fraction 0;
};
object ZIPload {
	schedule_skew 1007;
	heat_fraction 0.75;
	base_power REFRIGERATOR*1.0200;
	power_pf 0.97;
	power_fraction 1;
	current_pf 0.97;
	current_fraction 0;
	impedance_pf 0.97;
	impedance_fraction 0;
};
object ZIPload {
	schedule_skew 1007;
	heat_fraction 0.765;
	base_power DISHWASHER*0.9724;
	power_pf 0.97;
	power_fraction 1;
	current_pf 0.97;
	current_fraction 0;
	impedance_pf 0.97;
	impedance_fraction 0;
};
object ZIPload {
	schedule_skew 1007;
	heat_fraction 0.942;
	base_power RANGE*0.8856;
	power_pf 0;
	power_fraction 0;
	current_pf 0;
	current_fraction 0;
	impedance_pf 1;
	impedance_fraction 1;
};
object ZIPload {
	schedule_skew 1007;
	heat_fraction 0.784;
	base_power MICROWAVE*0.7910;
	power_pf 0.97;
	power_fraction 1;
	current_pf 0.97;
	current_fraction 0;
	impedance_pf 0.97;
	impedance_fraction 0;
};
 object metrics_collector {
  interval 300;
 };
}

object triplex_meter {
	name F1_tpm_flatrate_A11;
	groupid F1_flatrate_meter;
	phases SA;
	nominal_voltage 120;
	bill_mode UNIFORM;
  price ${FIXED_PRICE};
  bill_day 1;
  monthly_fee 6;
}

object triplex_line {
	groupid F1_Triplex_Line;
	phases SA;
	from F1_triplex_node_A;
	to F1_tpm_flatrate_A11;
	length 10 ft;
	configuration TLCFG;
}

object triplex_meter {
	name F1_tpm_rt_A11;
	groupid F1_rt_meter;
	parent F1_tpm_flatrate_A11;
	phases SA;
	nominal_voltage 120;
	bill_mode UNIFORM;
  bill_day 1;
  monthly_fee 6;
  price ${FIXED_PRICE};
  object metrics_collector {
    interval 300;
  };
}

object house {
	name F1_house_A11;
	parent F1_tpm_rt_A11;
	schedule_skew -422;
	Rroof 32.753;
	Rwall 21.638;
	Rfloor 13.009;
	Rdoors 5;
	Rwindows 1.299;
	airchange_per_hour 0.878;
	hvac_power_factor 0.97;
	cooling_system_type ELECTRIC;
	heating_system_type GAS;
	fan_type ONE_SPEED;
	hvac_breaker_rating 200;
	total_thermal_mass_per_floor_area 4.93;
	motor_efficiency AVERAGE;
	motor_model BASIC;
	cooling_COP 3.533;
	floor_area 770.818;
	number_of_doors 1;
	air_temperature 70.59;
	mass_temperature 70.59;
	heating_setpoint heating2*0.985+2.33;
object ZIPload {
	schedule_skew -422;
	heat_fraction 0.689;
	base_power LIGHTS*1.7048;
	power_pf 0;
	power_fraction 0;
	current_pf 0;
	current_fraction 0;
	impedance_pf 1;
	impedance_fraction 1;
};
object ZIPload {
	schedule_skew -422;
	heat_fraction 0.939;
	base_power CLOTHESWASHER*0.5314;
	power_pf 0.97;
	power_fraction 1;
	current_pf 0.97;
	current_fraction 0;
	impedance_pf 0.97;
	impedance_fraction 0;
};
object ZIPload {
	schedule_skew -422;
	heat_fraction 0.71;
	base_power REFRIGERATOR*0.5229;
	power_pf 0.97;
	power_fraction 1;
	current_pf 0.97;
	current_fraction 0;
	impedance_pf 0.97;
	impedance_fraction 0;
};
object ZIPload {
	schedule_skew -422;
	heat_fraction 0.738;
	base_power DRYER*0.9146;
	power_pf 0.9;
	power_fraction 0.1;
	current_pf 0.9;
	current_fraction 0.1;
	impedance_pf 1;
	impedance_fraction 0.8;
};
object ZIPload {
	schedule_skew -422;
	heat_fraction 0.791;
	base_power DISHWASHER*0.4815;
	power_pf 0.97;
	power_fraction 1;
	current_pf 0.97;
	current_fraction 0;
	impedance_pf 0.97;
	impedance_fraction 0;
};
object ZIPload {
	schedule_skew -422;
	heat_fraction 0.762;
	base_power RANGE*0.4163;
	power_pf 0;
	power_fraction 0;
	current_pf 0;
	current_fraction 0;
	impedance_pf 1;
	impedance_fraction 1;
};
object ZIPload {
	schedule_skew -422;
	heat_fraction 0.769;
	base_power MICROWAVE*0.5016;
	power_pf 0.97;
	power_fraction 1;
	current_pf 0.97;
	current_fraction 0;
	impedance_pf 0.97;
	impedance_fraction 0;
};
 object metrics_collector {
  interval 300;
 };
}

object triplex_meter {
	name F1_tpm_flatrate_A12;
	groupid F1_flatrate_meter;
	phases SA;
	nominal_voltage 120;
	bill_mode UNIFORM;
  price ${FIXED_PRICE};
  bill_day 1;
  monthly_fee 6;
}

object triplex_line {
	groupid F1_Triplex_Line;
	phases SA;
	from F1_triplex_node_A;
	to F1_tpm_flatrate_A12;
	length 10 ft;
	configuration TLCFG;
}

object triplex_meter {
	name F1_tpm_rt_A12;
	groupid F1_rt_meter;
	parent F1_tpm_flatrate_A12;
	phases SA;
	nominal_voltage 120;
	bill_mode UNIFORM;
  bill_day 1;
  monthly_fee 6;
  price ${FIXED_PRICE};
  object metrics_collector {
    interval 300;
  };
}

object house {
	name F1_house_A12;
	parent F1_tpm_rt_A12;
	schedule_skew 352;
	Rroof 30.24;
	Rwall 19.73;
	Rfloor 12.649;
	Rdoors 5;
	Rwindows 1.67;
	airchange_per_hour 0.812;
	hvac_power_factor 0.97;
	cooling_system_type ELECTRIC;
	heating_system_type GAS;
	fan_type ONE_SPEED;
	hvac_breaker_rating 200;
	total_thermal_mass_per_floor_area 3.169;
	motor_efficiency AVERAGE;
	motor_model BASIC;
	cooling_COP 3.834;
	floor_area 848.429;
	number_of_doors 1;
	air_temperature 70.865;
	mass_temperature 70.865;
	heating_setpoint heating7*1.049+1.05;
object ZIPload {
	schedule_skew 352;
	heat_fraction 0.71;
	base_power LIGHTS*1.3151;
	power_pf -0.78;
	power_fraction 0.6;
	current_pf 0.42;
	current_fraction 0;
	impedance_pf -0.88;
	impedance_fraction 0.4;
};
object ZIPload {
	schedule_skew 352;
	heat_fraction 0.67;
	base_power CLOTHESWASHER*0.8809;
	power_pf 0.97;
	power_fraction 1;
	current_pf 0.97;
	current_fraction 0;
	impedance_pf 0.97;
	impedance_fraction 0;
};
object ZIPload {
	schedule_skew 352;
	heat_fraction 0.656;
	base_power REFRIGERATOR*0.7265;
	power_pf 0.97;
	power_fraction 1;
	current_pf 0.97;
	current_fraction 0;
	impedance_pf 0.97;
	impedance_fraction 0;
};
object ZIPload {
	schedule_skew 352;
	heat_fraction 0.912;
	base_power DRYER*0.4669;
	power_pf 0.9;
	power_fraction 0.1;
	current_pf 0.9;
	current_fraction 0.1;
	impedance_pf 1;
	impedance_fraction 0.8;
};
object ZIPload {
	schedule_skew 352;
	heat_fraction 0.829;
	base_power RANGE*0.4825;
	power_pf 0;
	power_fraction 0;
	current_pf 0;
	current_fraction 0;
	impedance_pf 1;
	impedance_fraction 1;
};
object ZIPload {
	schedule_skew 352;
	heat_fraction 0.865;
	base_power MICROWAVE*0.3953;
	power_pf 0.97;
	power_fraction 1;
	current_pf 0.97;
	current_fraction 0;
	impedance_pf 0.97;
	impedance_fraction 0;
};
 object metrics_collector {
  interval 300;
 };
}

object triplex_meter {
	name F1_tpm_flatrate_A13;
	groupid F1_flatrate_meter;
	phases SA;
	nominal_voltage 120;
	bill_mode UNIFORM;
  price ${FIXED_PRICE};
  bill_day 1;
  monthly_fee 6;
}

object triplex_line {
	groupid F1_Triplex_Line;
	phases SA;
	from F1_triplex_node_A;
	to F1_tpm_flatrate_A13;
	length 10 ft;
	configuration TLCFG;
}

object triplex_meter {
	name F1_tpm_rt_A13;
	groupid F1_rt_meter;
	parent F1_tpm_flatrate_A13;
	phases SA;
	nominal_voltage 120;
	bill_mode UNIFORM;
  bill_day 1;
  monthly_fee 6;
  price ${FIXED_PRICE};
  object metrics_collector {
    interval 300;
  };
}

object house {
	name F1_house_A13;
	parent F1_tpm_rt_A13;
	schedule_skew -4;
	Rroof 25.019;
	Rwall 19.629;
	Rfloor 13.269;
	Rdoors 5;
	Rwindows 1.571;
	airchange_per_hour 1.101;
	hvac_power_factor 0.97;
	cooling_system_type ELECTRIC;
	heating_system_type GAS;
	fan_type ONE_SPEED;
	hvac_breaker_rating 200;
	total_thermal_mass_per_floor_area 3.883;
	motor_efficiency AVERAGE;
	motor_model BASIC;
	cooling_COP 3.646;
	floor_area 849.741;
	number_of_doors 1;
	air_temperature 70.919;
	mass_temperature 70.919;
	heating_setpoint heating5*0.991+2.22;
object ZIPload {
	schedule_skew -4;
	heat_fraction 0.945;
	base_power LIGHTS*1.2112;
	power_pf -0.78;
	power_fraction 0.6;
	current_pf 0.42;
	current_fraction 0;
	impedance_pf -0.88;
	impedance_fraction 0.4;
};
object ZIPload {
	schedule_skew -4;
	heat_fraction 0.752;
	base_power CLOTHESWASHER*0.3919;
	power_pf 0.97;
	power_fraction 1;
	current_pf 0.97;
	current_fraction 0;
	impedance_pf 0.97;
	impedance_fraction 0;
};
object ZIPload {
	schedule_skew -4;
	heat_fraction 0.764;
	base_power REFRIGERATOR*0.4226;
	power_pf 0.97;
	power_fraction 1;
	current_pf 0.97;
	current_fraction 0;
	impedance_pf 0.97;
	impedance_fraction 0;
};
object ZIPload {
	schedule_skew -4;
	heat_fraction 0.863;
	base_power DRYER*0.8286;
	power_pf 0.9;
	power_fraction 0.1;
	current_pf 0.9;
	current_fraction 0.1;
	impedance_pf 1;
	impedance_fraction 0.8;
};
object ZIPload {
	schedule_skew -4;
	heat_fraction 0.922;
	base_power DISHWASHER*1.0056;
	power_pf 0.97;
	power_fraction 1;
	current_pf 0.97;
	current_fraction 0;
	impedance_pf 0.97;
	impedance_fraction 0;
};
object ZIPload {
	schedule_skew -4;
	heat_fraction 0.769;
	base_power RANGE*0.8392;
	power_pf 0;
	power_fraction 0;
	current_pf 0;
	current_fraction 0;
	impedance_pf 1;
	impedance_fraction 1;
};
object ZIPload {
	schedule_skew -4;
	heat_fraction 0.713;
	base_power MICROWAVE*0.4956;
	power_pf 0.97;
	power_fraction 1;
	current_pf 0.97;
	current_fraction 0;
	impedance_pf 0.97;
	impedance_fraction 0;
};
 object metrics_collector {
  interval 300;
 };
}

object triplex_meter {
	name F1_tpm_flatrate_C14;
	groupid F1_flatrate_meter;
	phases SC;
	nominal_voltage 120;
	bill_mode UNIFORM;
  price ${FIXED_PRICE};
  bill_day 1;
  monthly_fee 6;
}

object triplex_line {
	groupid F1_Triplex_Line;
	phases SC;
	from F1_triplex_node_C;
	to F1_tpm_flatrate_C14;
	length 10 ft;
	configuration TLCFG;
}

object triplex_meter {
	name F1_tpm_rt_C14;
	groupid F1_rt_meter;
	parent F1_tpm_flatrate_C14;
	phases SC;
	nominal_voltage 120;
	bill_mode UNIFORM;
  bill_day 1;
  monthly_fee 6;
  price ${FIXED_PRICE};
  object metrics_collector {
    interval 300;
  };
}

object house {
	name F1_house_C14;
	parent F1_tpm_rt_C14;
	schedule_skew -226;
	Rroof 19.292;
	Rwall 9.499;
	Rfloor 10.952;
	Rdoors 3;
	Rwindows 1.413;
	airchange_per_hour 1.012;
	hvac_power_factor 0.97;
	cooling_system_type ELECTRIC;
	heating_system_type GAS;
	fan_type ONE_SPEED;
	hvac_breaker_rating 200;
	total_thermal_mass_per_floor_area 3.581;
	motor_efficiency AVERAGE;
	motor_model BASIC;
	cooling_COP 2.79;
	floor_area 1197.418;
	number_of_doors 2;
	air_temperature 69.709;
	mass_temperature 69.709;
	heating_setpoint heating3*0.982+2.48;
object ZIPload {
	schedule_skew -226;
	heat_fraction 0.896;
	base_power LIGHTS*0.9759;
	power_pf -0.78;
	power_fraction 0.6;
	current_pf 0.42;
	current_fraction 0;
	impedance_pf -0.88;
	impedance_fraction 0.4;
};
object ZIPload {
	schedule_skew -226;
	heat_fraction 0.87;
	base_power CLOTHESWASHER*1.1073;
	power_pf 0.97;
	power_fraction 1;
	current_pf 0.97;
	current_fraction 0;
	impedance_pf 0.97;
	impedance_fraction 0;
};
object ZIPload {
	schedule_skew -226;
	heat_fraction 0.716;
	base_power REFRIGERATOR*0.5169;
	power_pf 0.97;
	power_fraction 1;
	current_pf 0.97;
	current_fraction 0;
	impedance_pf 0.97;
	impedance_fraction 0;
};
object ZIPload {
	schedule_skew -226;
	heat_fraction 0.648;
	base_power DRYER*1.0014;
	power_pf 0.9;
	power_fraction 0.1;
	current_pf 0.9;
	current_fraction 0.1;
	impedance_pf 1;
	impedance_fraction 0.8;
};
object ZIPload {
	schedule_skew -226;
	heat_fraction 0.813;
	base_power RANGE*1.0866;
	power_pf 0;
	power_fraction 0;
	current_pf 0;
	current_fraction 0;
	impedance_pf 1;
	impedance_fraction 1;
};
object ZIPload {
	schedule_skew -226;
	heat_fraction 0.931;
	base_power MICROWAVE*0.8762;
	power_pf 0.97;
	power_fraction 1;
	current_pf 0.97;
	current_fraction 0;
	impedance_pf 0.97;
	impedance_fraction 0;
};
 object metrics_collector {
  interval 300;
 };
}

object triplex_meter {
	name F1_tpm_flatrate_A15;
	groupid F1_flatrate_meter;
	phases SA;
	nominal_voltage 120;
	bill_mode UNIFORM;
  price ${FIXED_PRICE};
  bill_day 1;
  monthly_fee 6;
}

object triplex_line {
	groupid F1_Triplex_Line;
	phases SA;
	from F1_triplex_node_A;
	to F1_tpm_flatrate_A15;
	length 10 ft;
	configuration TLCFG;
}

object triplex_meter {
	name F1_tpm_rt_A15;
	groupid F1_rt_meter;
	parent F1_tpm_flatrate_A15;
	phases SA;
	nominal_voltage 120;
	bill_mode UNIFORM;
  bill_day 1;
  monthly_fee 6;
  price ${FIXED_PRICE};
  object metrics_collector {
    interval 300;
  };
}

object house {
	name F1_house_A15;
	parent F1_tpm_rt_A15;
	schedule_skew -2314;
	Rroof 26.279;
	Rwall 18.199;
	Rfloor 15.417;
	Rdoors 5;
	Rwindows 2.136;
	airchange_per_hour 0.862;
	hvac_power_factor 0.97;
	cooling_system_type ELECTRIC;
	heating_system_type GAS;
	fan_type ONE_SPEED;
	hvac_breaker_rating 200;
	total_thermal_mass_per_floor_area 3.743;
	motor_efficiency AVERAGE;
	motor_model BASIC;
	cooling_COP 3.819;
	floor_area 3212.13;
	number_of_doors 4;
	air_temperature 69.563;
	mass_temperature 69.563;
	heating_setpoint heating6*1.033+2.39;
object ZIPload {
	schedule_skew -2314;
	heat_fraction 0.72;
	base_power LIGHTS*1.8894;
	power_pf -0.78;
	power_fraction 0.6;
	current_pf 0.42;
	current_fraction 0;
	impedance_pf -0.88;
	impedance_fraction 0.4;
};
object ZIPload {
	schedule_skew -2314;
	heat_fraction 0.695;
	base_power CLOTHESWASHER*1.0825;
	power_pf 0.97;
	power_fraction 1;
	current_pf 0.97;
	current_fraction 0;
	impedance_pf 0.97;
	impedance_fraction 0;
};
object ZIPload {
	schedule_skew -2314;
	heat_fraction 0.645;
	base_power REFRIGERATOR*1.0583;
	power_pf 0.97;
	power_fraction 1;
	current_pf 0.97;
	current_fraction 0;
	impedance_pf 0.97;
	impedance_fraction 0;
};
object ZIPload {
	schedule_skew -2314;
	heat_fraction 0.915;
	base_power DRYER*1.2578;
	power_pf 0.9;
	power_fraction 0.1;
	current_pf 0.9;
	current_fraction 0.1;
	impedance_pf 1;
	impedance_fraction 0.8;
};
object ZIPload {
	schedule_skew -2314;
	heat_fraction 0.77;
	base_power FREEZER*1.5721;
	power_pf 0.97;
	power_fraction 1;
	current_pf 0.97;
	current_fraction 0;
	impedance_pf 0.97;
	impedance_fraction 0;
};
object ZIPload {
	schedule_skew -2314;
	heat_fraction 0.819;
	base_power DISHWASHER*1.6997;
	power_pf 0.97;
	power_fraction 1;
	current_pf 0.97;
	current_fraction 0;
	impedance_pf 0.97;
	impedance_fraction 0;
};
object ZIPload {
	schedule_skew -2314;
	heat_fraction 0.69;
	base_power RANGE*1.5696;
	power_pf 0;
	power_fraction 0;
	current_pf 0;
	current_fraction 0;
	impedance_pf 1;
	impedance_fraction 1;
};
object ZIPload {
	schedule_skew -2314;
	heat_fraction 0.736;
	base_power MICROWAVE*0.7442;
	power_pf 0.97;
	power_fraction 1;
	current_pf 0.97;
	current_fraction 0;
	impedance_pf 0.97;
	impedance_fraction 0;
};
 object metrics_collector {
  interval 300;
 };
}

object triplex_meter {
	name F1_tpm_flatrate_A16;
	groupid F1_flatrate_meter;
	phases SA;
	nominal_voltage 120;
	bill_mode UNIFORM;
  price ${FIXED_PRICE};
  bill_day 1;
  monthly_fee 6;
}

object triplex_line {
	groupid F1_Triplex_Line;
	phases SA;
	from F1_triplex_node_A;
	to F1_tpm_flatrate_A16;
	length 10 ft;
	configuration TLCFG;
}

object triplex_meter {
	name F1_tpm_rt_A16;
	groupid F1_rt_meter;
	parent F1_tpm_flatrate_A16;
	phases SA;
	nominal_voltage 120;
	bill_mode UNIFORM;
  bill_day 1;
  monthly_fee 6;
  price ${FIXED_PRICE};
  object metrics_collector {
    interval 300;
  };
}

object house {
	name F1_house_A16;
	parent F1_tpm_rt_A16;
	schedule_skew -1182;
	Rroof 31.604;
	Rwall 18.486;
	Rfloor 12.129;
	Rdoors 5;
	Rwindows 1.591;
	airchange_per_hour 1.055;
	hvac_power_factor 0.97;
	cooling_system_type ELECTRIC;
	heating_system_type GAS;
	fan_type ONE_SPEED;
	hvac_breaker_rating 200;
	total_thermal_mass_per_floor_area 4.379;
	motor_efficiency AVERAGE;
	motor_model BASIC;
	cooling_COP 3.955;
	floor_area 1206.328;
	number_of_doors 2;
	air_temperature 68.171;
	mass_temperature 68.171;
	heating_setpoint heating4*1.005+1.83;
object ZIPload {
	schedule_skew -1182;
	heat_fraction 0.928;
	base_power LIGHTS*1.3966;
	power_pf -0.78;
	power_fraction 0.6;
	current_pf 0.42;
	current_fraction 0;
	impedance_pf -0.88;
	impedance_fraction 0.4;
};
object ZIPload {
	schedule_skew -1182;
	heat_fraction 0.88;
	base_power CLOTHESWASHER*0.6925;
	power_pf 0.97;
	power_fraction 1;
	current_pf 0.97;
	current_fraction 0;
	impedance_pf 0.97;
	impedance_fraction 0;
};
object ZIPload {
	schedule_skew -1182;
	heat_fraction 0.945;
	base_power REFRIGERATOR*1.0741;
	power_pf 0.97;
	power_fraction 1;
	current_pf 0.97;
	current_fraction 0;
	impedance_pf 0.97;
	impedance_fraction 0;
};
object ZIPload {
	schedule_skew -1182;
	heat_fraction 0.809;
	base_power DRYER*1.0776;
	power_pf 0.9;
	power_fraction 0.1;
	current_pf 0.9;
	current_fraction 0.1;
	impedance_pf 1;
	impedance_fraction 0.8;
};
object ZIPload {
	schedule_skew -1182;
	heat_fraction 0.943;
	base_power DISHWASHER*0.4371;
	power_pf 0.97;
	power_fraction 1;
	current_pf 0.97;
	current_fraction 0;
	impedance_pf 0.97;
	impedance_fraction 0;
};
object ZIPload {
	schedule_skew -1182;
	heat_fraction 0.645;
	base_power RANGE*1.0368;
	power_pf 0;
	power_fraction 0;
	current_pf 0;
	current_fraction 0;
	impedance_pf 1;
	impedance_fraction 1;
};
object ZIPload {
	schedule_skew -1182;
	heat_fraction 0.85;
	base_power MICROWAVE*0.7235;
	power_pf 0.97;
	power_fraction 1;
	current_pf 0.97;
	current_fraction 0;
	impedance_pf 0.97;
	impedance_fraction 0;
};
 object metrics_collector {
  interval 300;
 };
}

object triplex_meter {
	name F1_tpm_flatrate_C17;
	groupid F1_flatrate_meter;
	phases SC;
	nominal_voltage 120;
	bill_mode UNIFORM;
  price ${FIXED_PRICE};
  bill_day 1;
  monthly_fee 6;
}

object triplex_line {
	groupid F1_Triplex_Line;
	phases SC;
	from F1_triplex_node_C;
	to F1_tpm_flatrate_C17;
	length 10 ft;
	configuration TLCFG;
}

object triplex_meter {
	name F1_tpm_rt_C17;
	groupid F1_rt_meter;
	parent F1_tpm_flatrate_C17;
	phases SC;
	nominal_voltage 120;
	bill_mode UNIFORM;
  bill_day 1;
  monthly_fee 6;
  price ${FIXED_PRICE};
  object metrics_collector {
    interval 300;
  };
}

object house {
	name F1_house_C17;
	parent F1_tpm_rt_C17;
	schedule_skew -351;
	Rroof 33.136;
	Rwall 21.469;
	Rfloor 13.545;
	Rdoors 5;
	Rwindows 1.961;
	airchange_per_hour 0.95;
	hvac_power_factor 0.97;
	cooling_system_type ELECTRIC;
	heating_system_type GAS;
	fan_type ONE_SPEED;
	hvac_breaker_rating 200;
	total_thermal_mass_per_floor_area 3.059;
	motor_efficiency AVERAGE;
	motor_model BASIC;
	cooling_COP 4.156;
	floor_area 2699.752;
	number_of_doors 3;
	air_temperature 71.855;
	mass_temperature 71.855;
	heating_setpoint heating3*0.961+0.81;
object ZIPload {
	schedule_skew -351;
	heat_fraction 0.702;
	base_power LIGHTS*2.9877;
	power_pf 0;
	power_fraction 0;
	current_pf 0;
	current_fraction 0;
	impedance_pf 1;
	impedance_fraction 1;
};
object ZIPload {
	schedule_skew -351;
	heat_fraction 0.837;
	base_power CLOTHESWASHER*0.9038;
	power_pf 0.97;
	power_fraction 1;
	current_pf 0.97;
	current_fraction 0;
	impedance_pf 0.97;
	impedance_fraction 0;
};
object ZIPload {
	schedule_skew -351;
	heat_fraction 0.901;
	base_power REFRIGERATOR*1.3202;
	power_pf 0.97;
	power_fraction 1;
	current_pf 0.97;
	current_fraction 0;
	impedance_pf 0.97;
	impedance_fraction 0;
};
object ZIPload {
	schedule_skew -351;
	heat_fraction 0.957;
	base_power DRYER*1.2306;
	power_pf 0.9;
	power_fraction 0.1;
	current_pf 0.9;
	current_fraction 0.1;
	impedance_pf 1;
	impedance_fraction 0.8;
};
object ZIPload {
	schedule_skew -351;
	heat_fraction 0.928;
	base_power DISHWASHER*1.7438;
	power_pf 0.97;
	power_fraction 1;
	current_pf 0.97;
	current_fraction 0;
	impedance_pf 0.97;
	impedance_fraction 0;
};
object ZIPload {
	schedule_skew -351;
	heat_fraction 0.922;
	base_power RANGE*1.2505;
	power_pf 0;
	power_fraction 0;
	current_pf 0;
	current_fraction 0;
	impedance_pf 1;
	impedance_fraction 1;
};
object ZIPload {
	schedule_skew -351;
	heat_fraction 0.786;
	base_power MICROWAVE*1.2792;
	power_pf 0.97;
	power_fraction 1;
	current_pf 0.97;
	current_fraction 0;
	impedance_pf 0.97;
	impedance_fraction 0;
};
 object metrics_collector {
  interval 300;
 };
}

object triplex_meter {
	name F1_tpm_flatrate_C18;
	groupid F1_flatrate_meter;
	phases SC;
	nominal_voltage 120;
	bill_mode UNIFORM;
  price ${FIXED_PRICE};
  bill_day 1;
  monthly_fee 6;
}

object triplex_line {
	groupid F1_Triplex_Line;
	phases SC;
	from F1_triplex_node_C;
	to F1_tpm_flatrate_C18;
	length 10 ft;
	configuration TLCFG;
}

object triplex_meter {
	name F1_tpm_rt_C18;
	groupid F1_rt_meter;
	parent F1_tpm_flatrate_C18;
	phases SC;
	nominal_voltage 120;
	bill_mode UNIFORM;
  bill_day 1;
  monthly_fee 6;
  price ${FIXED_PRICE};
  object metrics_collector {
    interval 300;
  };
}

object house {
	name F1_house_C18;
	parent F1_tpm_rt_C18;
	schedule_skew -7;
	Rroof 17.469;
	Rwall 6.715;
	Rfloor 5.94;
	Rdoors 3;
	Rwindows 1.214;
	airchange_per_hour 1.44;
	hvac_power_factor 0.97;
	cooling_system_type ELECTRIC;
	heating_system_type GAS;
	fan_type ONE_SPEED;
	hvac_breaker_rating 200;
	total_thermal_mass_per_floor_area 4.463;
	motor_efficiency AVERAGE;
	motor_model BASIC;
	cooling_COP 2.96;
	floor_area 695.064;
	number_of_doors 1;
	air_temperature 70.927;
	mass_temperature 70.927;
	heating_setpoint heating6*1.032+0.12;
object ZIPload {
	schedule_skew -7;
	heat_fraction 0.952;
	base_power LIGHTS*1.4008;
	power_pf -0.78;
	power_fraction 0.6;
	current_pf 0.42;
	current_fraction 0;
	impedance_pf -0.88;
	impedance_fraction 0.4;
};
object ZIPload {
	schedule_skew -7;
	heat_fraction 0.843;
	base_power CLOTHESWASHER*0.4350;
	power_pf 0.97;
	power_fraction 1;
	current_pf 0.97;
	current_fraction 0;
	impedance_pf 0.97;
	impedance_fraction 0;
};
object ZIPload {
	schedule_skew -7;
	heat_fraction 0.932;
	base_power REFRIGERATOR*0.3573;
	power_pf 0.97;
	power_fraction 1;
	current_pf 0.97;
	current_fraction 0;
	impedance_pf 0.97;
	impedance_fraction 0;
};
object ZIPload {
	schedule_skew -7;
	heat_fraction 0.715;
	base_power DISHWASHER*0.6936;
	power_pf 0.97;
	power_fraction 1;
	current_pf 0.97;
	current_fraction 0;
	impedance_pf 0.97;
	impedance_fraction 0;
};
object ZIPload {
	schedule_skew -7;
	heat_fraction 0.887;
	base_power RANGE*0.3702;
	power_pf 0;
	power_fraction 0;
	current_pf 0;
	current_fraction 0;
	impedance_pf 1;
	impedance_fraction 1;
};
object ZIPload {
	schedule_skew -7;
	heat_fraction 0.661;
	base_power MICROWAVE*0.4329;
	power_pf 0.97;
	power_fraction 1;
	current_pf 0.97;
	current_fraction 0;
	impedance_pf 0.97;
	impedance_fraction 0;
};
 object metrics_collector {
  interval 300;
 };
}

object triplex_meter {
	name F1_tpm_flatrate_B19;
	groupid F1_flatrate_meter;
	phases SB;
	nominal_voltage 120;
	bill_mode UNIFORM;
  price ${FIXED_PRICE};
  bill_day 1;
  monthly_fee 6;
}

object triplex_line {
	groupid F1_Triplex_Line;
	phases SB;
	from F1_triplex_node_B;
	to F1_tpm_flatrate_B19;
	length 10 ft;
	configuration TLCFG;
}

object triplex_meter {
	name F1_tpm_rt_B19;
	groupid F1_rt_meter;
	parent F1_tpm_flatrate_B19;
	phases SB;
	nominal_voltage 120;
	bill_mode UNIFORM;
  bill_day 1;
  monthly_fee 6;
  price ${FIXED_PRICE};
  object metrics_collector {
    interval 300;
  };
}

object house {
	name F1_house_B19;
	parent F1_tpm_rt_B19;
	schedule_skew 555;
	Rroof 33.982;
	Rwall 18.772;
	Rfloor 13.604;
	Rdoors 5;
	Rwindows 2.098;
	airchange_per_hour 1.145;
	hvac_power_factor 0.97;
	cooling_system_type ELECTRIC;
	heating_system_type GAS;
	fan_type ONE_SPEED;
	hvac_breaker_rating 200;
	total_thermal_mass_per_floor_area 3.925;
	motor_efficiency AVERAGE;
	motor_model BASIC;
	cooling_COP 3.758;
	floor_area 2504.546;
	number_of_doors 3;
	air_temperature 69.462;
	mass_temperature 69.462;
	heating_setpoint heating7*0.977+2.45;
object ZIPload {
	schedule_skew 555;
	heat_fraction 0.731;
	base_power LIGHTS*3.0180;
	power_pf -0.78;
	power_fraction 0.6;
	current_pf 0.42;
	current_fraction 0;
	impedance_pf -0.88;
	impedance_fraction 0.4;
};
object ZIPload {
	schedule_skew 555;
	heat_fraction 0.71;
	base_power CLOTHESWASHER*1.2440;
	power_pf 0.97;
	power_fraction 1;
	current_pf 0.97;
	current_fraction 0;
	impedance_pf 0.97;
	impedance_fraction 0;
};
object ZIPload {
	schedule_skew 555;
	heat_fraction 0.8;
	base_power REFRIGERATOR*0.9613;
	power_pf 0.97;
	power_fraction 1;
	current_pf 0.97;
	current_fraction 0;
	impedance_pf 0.97;
	impedance_fraction 0;
};
object ZIPload {
	schedule_skew 555;
	heat_fraction 0.905;
	base_power DRYER*0.6690;
	power_pf 0.9;
	power_fraction 0.1;
	current_pf 0.9;
	current_fraction 0.1;
	impedance_pf 1;
	impedance_fraction 0.8;
};
object ZIPload {
	schedule_skew 555;
	heat_fraction 0.759;
	base_power FREEZER*0.9096;
	power_pf 0.97;
	power_fraction 1;
	current_pf 0.97;
	current_fraction 0;
	impedance_pf 0.97;
	impedance_fraction 0;
};
object ZIPload {
	schedule_skew 555;
	heat_fraction 0.734;
	base_power DISHWASHER*1.5415;
	power_pf 0.97;
	power_fraction 1;
	current_pf 0.97;
	current_fraction 0;
	impedance_pf 0.97;
	impedance_fraction 0;
};
object ZIPload {
	schedule_skew 555;
	heat_fraction 0.943;
	base_power RANGE*1.6941;
	power_pf 0;
	power_fraction 0;
	current_pf 0;
	current_fraction 0;
	impedance_pf 1;
	impedance_fraction 1;
};
object ZIPload {
	schedule_skew 555;
	heat_fraction 0.696;
	base_power MICROWAVE*1.6149;
	power_pf 0.97;
	power_fraction 1;
	current_pf 0.97;
	current_fraction 0;
	impedance_pf 0.97;
	impedance_fraction 0;
};
 object metrics_collector {
  interval 300;
 };
}

object triplex_meter {
	name F1_tpm_flatrate_B20;
	groupid F1_flatrate_meter;
	phases SB;
	nominal_voltage 120;
	bill_mode UNIFORM;
  price ${FIXED_PRICE};
  bill_day 1;
  monthly_fee 6;
}

object triplex_line {
	groupid F1_Triplex_Line;
	phases SB;
	from F1_triplex_node_B;
	to F1_tpm_flatrate_B20;
	length 10 ft;
	configuration TLCFG;
}

object triplex_meter {
	name F1_tpm_rt_B20;
	groupid F1_rt_meter;
	parent F1_tpm_flatrate_B20;
	phases SB;
	nominal_voltage 120;
	bill_mode UNIFORM;
  bill_day 1;
  monthly_fee 6;
  price ${FIXED_PRICE};
  object metrics_collector {
    interval 300;
  };
}

object house {
	name F1_house_B20;
	parent F1_tpm_rt_B20;
	schedule_skew -476;
	Rroof 31.657;
	Rwall 16.925;
	Rfloor 17.361;
	Rdoors 5;
	Rwindows 1.349;
	airchange_per_hour 0.928;
	hvac_power_factor 0.97;
	cooling_system_type ELECTRIC;
	heating_system_type GAS;
	fan_type ONE_SPEED;
	hvac_breaker_rating 200;
	total_thermal_mass_per_floor_area 4.881;
	motor_efficiency AVERAGE;
	motor_model BASIC;
	cooling_COP 3.529;
	floor_area 2932.802;
	number_of_doors 3;
	air_temperature 71.091;
	mass_temperature 71.091;
	heating_setpoint heating3*0.967+0.25;
object ZIPload {
	schedule_skew -476;
	heat_fraction 0.899;
	base_power LIGHTS*3.6757;
	power_pf 0;
	power_fraction 0;
	current_pf 0;
	current_fraction 0;
	impedance_pf 1;
	impedance_fraction 1;
};
object ZIPload {
	schedule_skew -476;
	heat_fraction 0.798;
	base_power CLOTHESWASHER*0.9307;
	power_pf 0.97;
	power_fraction 1;
	current_pf 0.97;
	current_fraction 0;
	impedance_pf 0.97;
	impedance_fraction 0;
};
object ZIPload {
	schedule_skew -476;
	heat_fraction 0.799;
	base_power REFRIGERATOR*1.3515;
	power_pf 0.97;
	power_fraction 1;
	current_pf 0.97;
	current_fraction 0;
	impedance_pf 0.97;
	impedance_fraction 0;
};
object ZIPload {
	schedule_skew -476;
	heat_fraction 0.778;
	base_power DRYER*1.0951;
	power_pf 0.9;
	power_fraction 0.1;
	current_pf 0.9;
	current_fraction 0.1;
	impedance_pf 1;
	impedance_fraction 0.8;
};
object ZIPload {
	schedule_skew -476;
	heat_fraction 0.854;
	base_power DISHWASHER*1.3369;
	power_pf 0.97;
	power_fraction 1;
	current_pf 0.97;
	current_fraction 0;
	impedance_pf 0.97;
	impedance_fraction 0;
};
object ZIPload {
	schedule_skew -476;
	heat_fraction 0.724;
	base_power RANGE*0.7429;
	power_pf 0;
	power_fraction 0;
	current_pf 0;
	current_fraction 0;
	impedance_pf 1;
	impedance_fraction 1;
};
object ZIPload {
	schedule_skew -476;
	heat_fraction 0.91;
	base_power MICROWAVE*1.8080;
	power_pf 0.97;
	power_fraction 1;
	current_pf 0.97;
	current_fraction 0;
	impedance_pf 0.97;
	impedance_fraction 0;
};
 object metrics_collector {
  interval 300;
 };
}

object triplex_meter {
	name F1_tpm_flatrate_C21;
	groupid F1_flatrate_meter;
	phases SC;
	nominal_voltage 120;
	bill_mode UNIFORM;
  price ${FIXED_PRICE};
  bill_day 1;
  monthly_fee 6;
}

object triplex_line {
	groupid F1_Triplex_Line;
	phases SC;
	from F1_triplex_node_C;
	to F1_tpm_flatrate_C21;
	length 10 ft;
	configuration TLCFG;
}

object triplex_meter {
	name F1_tpm_rt_C21;
	groupid F1_rt_meter;
	parent F1_tpm_flatrate_C21;
	phases SC;
	nominal_voltage 120;
	bill_mode UNIFORM;
  bill_day 1;
  monthly_fee 6;
  price ${FIXED_PRICE};
  object metrics_collector {
    interval 300;
  };
}

object house {
	name F1_house_C21;
	parent F1_tpm_rt_C21;
	schedule_skew -877;
	Rroof 25.356;
	Rwall 21.049;
	Rfloor 14.667;
	Rdoors 5;
	Rwindows 2.041;
	airchange_per_hour 0.826;
	hvac_power_factor 0.97;
	cooling_system_type ELECTRIC;
	heating_system_type GAS;
	fan_type ONE_SPEED;
	hvac_breaker_rating 200;
	total_thermal_mass_per_floor_area 3.688;
	motor_efficiency AVERAGE;
	motor_model BASIC;
	cooling_COP 3.475;
	floor_area 2987.803;
	number_of_doors 3;
	air_temperature 71.628;
	mass_temperature 71.628;
	heating_setpoint heating8*0.988+2.47;
object ZIPload {
...